MT3DSUP
BTN "zx_7_12.btn"
FLO "..\zx_7_12_MODFLOW\zx_7_12.hff"
ADV "zx_7_12.adv"
DSP "zx_7_12.dsp"
SSM "zx_7_12.ssm"
TOB "zx_7_12.tob"
GCG "zx_7_12.gcg"
CHK Y
OUT "zx_7_12.out"
CON "zx_7_12.con"
DSS "zx_7_12.dss"
SPC "tracer" 1 1
RUNOPTIONS 0 "Undefined"
GMSTOB_OPTIONS 1 0
ORIG    0.0 0.0 9.5
ROTZ 0
LAYER   0
      1.5000 
DMAT 1
MPOR 1 0 0.3
MLD 1 0 0.0
HTOPEQ1 1
REFTIME  s 0 1900 1 1 0 0 0
UNITS "m"	"d"	"mg"	"lb"	"mg/l"
