GMS MT3DMS Simulation
13 July 2023
         1       128       128         5         1         1
   d   m  mg
 T T T F T F F F F T
 1
         0 1.5000000                              
         0 1.5000000                              
         0 11.000000                              
         0 1.5000000                              
         0 0.3000000                              
         0         1                              
         0       0.0                              
 -999.0000
         0         0         0         0         T
        -5
         0
         T
 200.00000        10 1.0000000
       0.0      1000 1.0000000       0.0
 200.00000        10 1.0000000
       0.0      1000 1.0000000       0.0
 200.00000        10 1.0000000
       0.0      1000 1.0000000       0.0
 200.00000        10 1.0000000
       0.0      1000 1.0000000       0.0
 200.00000        10 1.0000000
       0.0      1000 1.0000000       0.0
